gdb 39	23.44662	3.60588	3.38683	0.	45.71	-0.317	0.0937	0.4107	426.2996	0.131708	-158.340943	-158.33517	-158.334226	-158.36894	19.668
 OpenBabel06121813593D

 14 13  0  0  0  0  0  0  0  0999 V2000
   -0.0301    1.5580    0.0298 C   0  0  0  0  0  0  0  0  0  0  0  0
    0.0071    0.0283   -0.0071 C   0  0  0  0  0  0  0  0  0  0  0  0
    0.7132   -0.5299   -1.2477 C   0  0  0  0  0  0  0  0  0  0  0  0
    0.7504   -2.0596   -1.2846 C   0  0  0  0  0  0  0  0  0  0  0  0
    0.9820    1.9785    0.0280 H   0  0  0  0  0  0  0  0  0  0  0  0
   -0.5558    1.9621   -0.8427 H   0  0  0  0  0  0  0  0  0  0  0  0
   -0.5408    1.9269    0.9249 H   0  0  0  0  0  0  0  0  0  0  0  0
    0.5093   -0.3491    0.8936 H   0  0  0  0  0  0  0  0  0  0  0  0
   -1.0173   -0.3654    0.0321 H   0  0  0  0  0  0  0  0  0  0  0  0
    0.2110   -0.1525   -2.1484 H   0  0  0  0  0  0  0  0  0  0  0  0
    1.7376   -0.1361   -1.2869 H   0  0  0  0  0  0  0  0  0  0  0  0
    1.2762   -2.4637   -0.4121 H   0  0  0  0  0  0  0  0  0  0  0  0
   -0.2617   -2.4800   -1.2827 H   0  0  0  0  0  0  0  0  0  0  0  0
    1.2611   -2.4285   -2.1797 H   0  0  0  0  0  0  0  0  0  0  0  0
  1  7  1  0  0  0  0
  2  1  1  0  0  0  0
  2  9  1  0  0  0  0
  2  8  1  0  0  0  0
  3  2  1  0  0  0  0
  4 13  1  0  0  0  0
  4  3  1  0  0  0  0
  4 12  1  0  0  0  0
  5  1  1  0  0  0  0
  6  1  1  0  0  0  0
 10  3  1  0  0  0  0
 11  3  1  0  0  0  0
 14  4  1  0  0  0  0
M  END
$$$$
