gdb 1	157.7118	157.70997	157.70699	0.	13.21	-0.3877	0.1171	0.5048	35.3641	0.044749	-40.47893	-40.476062	-40.475117	-40.498597	6.469
 OpenBabel06121813593D

  5  4  0  0  0  0  0  0  0  0999 V2000
   -0.0127    1.0858    0.0080 C   0  0  0  0  0  0  0  0  0  0  0  0
    0.0022   -0.0060    0.0020 H   0  0  0  0  0  0  0  0  0  0  0  0
    1.0117    1.4638    0.0003 H   0  0  0  0  0  0  0  0  0  0  0  0
   -0.5408    1.4475   -0.8766 H   0  0  0  0  0  0  0  0  0  0  0  0
   -0.5238    1.4379    0.9064 H   0  0  0  0  0  0  0  0  0  0  0  0
  1  5  1  0  0  0  0
  2  1  1  0  0  0  0
  3  1  1  0  0  0  0
  4  1  1  0  0  0  0
M  END
$$$$
